If you change even one character in this file... Git will know.

New line.


Este es otro cambio para checar como se ve el archivo antes del submit pero cuando ya esta en el staging area.